CRYSTAL
PRIMVEC
 26.458860   0.000000   0.000000
  0.000000  26.458860   0.000000
  0.000000   0.000000  26.458860
PRIMCOORD
21 1
 8   6.968490  -0.658483   6.945857
 8   9.568866   3.845502   6.945857
 8   4.887148   1.860146   8.853010
 8  10.087902   1.860146   8.853010
 8   8.947376  -1.201663   5.038704
 8  11.547753   3.302322   5.038704
 8   6.347000   3.302322  10.760168
 8  11.547753   3.302322  10.760168
 8   6.968490   0.658483   4.497071
 8   9.568866   5.162467   4.497071
 8   6.968490   0.658483  10.218535
 8  12.169243   0.658483  10.218535
 8   7.487525   2.643839   8.311382
 8  12.688278   2.643839   8.311382
 8   8.947376   1.201663   6.404223
 8  11.547753   5.705648   6.404223
14   9.023047   2.387562   7.628617
14   6.422671   2.116422   9.535775
14  11.623424   2.116422   9.535775
14   7.957673   0.000000   5.721464
14  10.558050   4.503985   5.721464
