CRYSTAL
PRIMVEC
 26.458860   0.000000   0.000000
  0.000000  26.458860   0.000000
  0.000000   0.000000  26.458860
PRIMCOORD
35 1
 8   4.368113   3.845502   1.224393
 8   4.368113   3.845502   6.945857
 8   6.968490   8.349487   6.945857
 8   9.568866   3.845502   6.945857
 8   4.887148   1.860146   3.131546
 8   7.487525   6.364130   3.131546
 8   4.887148   1.860146   8.853010
 8   7.487525   6.364130   8.853010
 8   6.347000   3.302322   5.038704
 8   8.947376   7.806306   5.038704
 8   4.368113   5.162467   4.497071
 8   6.968490   0.658483   4.497071
 8   9.568866   5.162467   4.497071
 8   2.286771   2.643839   2.589918
 8   4.887148   7.147824   2.589918
 8   7.487525   2.643839   2.589918
 8   2.286771   2.643839   8.311382
 8   4.887148   7.147824   8.311382
 8   7.487525   2.643839   8.311382
 8   6.347000   5.705648   0.682759
 8   3.746623   1.201663   6.404223
 8   6.347000   5.705648   6.404223
 8   8.947376   1.201663   6.404223
14   3.822294   2.387562   1.907153
14   6.422671   6.891547   1.907153
14   3.822294   2.387562   7.628617
14   6.422671   6.891547   7.628617
14   9.023047   2.387562   7.628617
14   1.221917   2.116422   3.814311
14   3.822294   6.620407   3.814311
14   6.422671   2.116422   3.814311
14   9.023047   6.620407   3.814311
14   5.357296   4.503985   5.721464
14   7.957673   9.007969   5.721464
14  10.558050   4.503985   5.721464
