CRYSTAL
PRIMVEC
 52.917720   0.000000   0.000000
  0.000000  52.917720   0.000000
  0.000000   0.000000  52.917720
PRIMCOORD
18 1
14   2.042624   0.000000   1.735701
14  -1.021312   1.769039   3.471402
14   1.280609   2.218311   0.000000
14   6.646466   0.000000   1.735701
14   3.582530   1.769039   3.471402
14   5.884450   2.218311   0.000000
 8   1.102805   1.220812   1.264204
 8   2.995143   0.344494   2.999906
 8   2.807814   2.421515   4.735607
 8   0.505893   1.565835   3.942899
 8  -1.199116   2.766009   2.207198
 8   0.693222   3.642327   0.471497
 8   5.706647   1.220812   1.264204
 8   7.598985   0.344494   2.999906
 8   7.411656   2.421515   4.735607
 8   5.109735   1.565835   3.942899
 8   3.404726   2.766009   2.207198
 8   5.297064   3.642327   0.471497
