CRYSTAL
PRIMVEC
 21.167088   0.000000   0.000000
  0.000000  21.167088   0.000000
  0.000000   0.000000  21.167088
PRIMCOORD
5 1
14   0.000000   0.000000   0.000000
 8   0.000000   0.000000   1.624574
 8   0.054179   0.000000   1.623670
 8  -0.027089  -0.046920   1.623670
 8  -0.027089   0.046920   1.623670
